[TITLE]
output								

[JUNCTIONS]
;ID              	Elev        	Demand      	Pattern         
 NODE_2          	1305.02     	0           	1               	;				
 NODE_325        	1301.9301   	0           	1               	;				
 NODE_463        	1295.37     	0           	1               	;				
 NODE_464        	1294.7      	0           	1               	;				
 NODE_465        	1292.6      	0           	1               	;				
 NODE_466        	1290.28     	0           	1               	;				
 NODE_467        	1292.8      	0           	1               	;				
 NODE_468        	1288.2      	0           	1               	;				
 NODE_469        	1288.65     	0           	1               	;				
 NODE_470        	1291.91     	0           	1               	;				
 NODE_471        	1286.67     	0           	1               	;				
 NODE_472        	1286.54     	0           	1               	;				
 NODE_326        	1304.23     	0           	1               	;				
 NODE_473        	1303.37     	0           	1               	;				
 NODE_474        	1301.17     	0           	1               	;				
 NODE_475        	1295.4      	0           	1               	;				
 NODE_476        	1292.76     	0           	1               	;				
 NODE_477        	1303.8      	0           	1               	;				
 NODE_478        	1292.13     	0           	1               	;				
 NODE_479        	1293.52     	0           	1               	;				
 NODE_480        	1288.52     	0           	1               	;				
 NODE_481        	1293.99     	0           	1               	;				
 NODE_482        	1290.14     	0           	1               	;				
 NODE_327        	1304.59     	0           	1               	;				
 NODE_483        	1290.1801   	0           	1               	;				
 NODE_499        	1305.4301   	0           	1               	;				
 NODE_500        	1288.89     	0           	1               	;				
 NODE_501        	1305.61     	0           	1               	;				
 NODE_502        	1305.86     	0           	1               	;				
 NODE_503        	1306.13     	0           	1               	;				
 NODE_504        	1286.3101   	0           	1               	;				
 NODE_506        	1288.6      	0           	1               	;				
 NODE_632        	1304.5601   	0           	1               	;				
 NODE_328        	1303.6      	0           	1               	;				
 NODE_633        	1298.0601   	0           	1               	;				
 NODE_635        	1306.13     	0           	1               	;				
 NODE_657        	1305.65     	0           	1               	;				
 NODE_658        	1288.96     	0           	1               	;				
 NODE_659        	1289.0601   	0           	1               	;				
 NODE_700        	1305.34     	0           	1               	;				
 NODE_702        	1305.17     	0           	1               	;				
 NODE_703        	1305.83     	0           	1               	;				
 NODE_704        	1305.89     	0           	1               	;				
 NODE_705        	1305.86     	0           	1               	;				
 NODE_329        	1303.67     	0           	1               	;				
 NODE_710        	1289.53     	0           	1               	;				
 NODE_963        	1290.03     	0           	1               	;				
 NODE_1101       	1305.46     	0           	1               	;				
 NODE_1102       	1305.48     	0           	1               	;				
 NODE_1119       	1288.5601   	0           	1               	;				
 NODE_1120       	1288.01     	0           	1               	;				
 NODE_1122       	1286.46     	0           	1               	;				
 NODE_1123       	1288.21     	0           	1               	;				
 NODE_1124       	1287.96     	0           	1               	;				
 NODE_330        	1304.62     	0           	1               	;				
 NODE_1141       	1304.23     	0           	1               	;				
 NODE_1159       	1305.55     	0           	1               	;				
 NODE_1160       	1305.15     	0           	1               	;				
 NODE_1162       	1305.08     	0           	1               	;				
 NODE_1185       	1297.4301   	0           	1               	;				
 NODE_1186       	1297.51     	0           	1               	;				
 NODE_1195       	1294.04     	0           	1               	;				
 NODE_1198       	1304.74     	0           	1               	;				
 NODE_331        	1304.4      	0           	1               	;				
 NODE_1207       	1284.84     	0           	1               	;				
 NODE_1209       	1286.3199   	0           	1               	;				
 NODE_1210       	1287.74     	0           	1               	;				
 NODE_1233       	1304.79     	0           	1               	;				
 NODE_1234       	1286.75     	0           	1               	;				
 NODE_332        	1305.02     	0           	1               	;				
 NODE_1235       	1288.38     	0           	1               	;				
 NODE_1236       	1293.01     	0           	1               	;				
 NODE_1237       	1303.79     	0           	1               	;				
 NODE_1238       	1291.74     	0           	1               	;				
 NODE_1239       	1306.41     	0           	1               	;				
 NODE_1252       	1306.3199   	0           	1               	;				
 NODE_333        	1306.15     	0           	1               	;				
 NODE_1253       	1305.12     	0           	1               	;				
 NODE_1254       	1305.49     	0           	1               	;				
 NODE_1257       	1288.46     	0           	1               	;				
 NODE_1362       	1290        	0           	1               	;				
 NODE_1364       	1290.49     	0           	1               	;				
 NODE_1365       	1293.2      	0           	1               	;				
 NODE_1366       	1289.98     	0           	1               	;				
 NODE_1367       	1293.0699   	0           	1               	;				
 NODE_334        	1305.87     	0           	1               	;				
 NODE_1369       	1288        	0           	1               	;				
 NODE_1370       	1288.1      	0           	1               	;				
 NODE_1371       	1287.8      	0           	1               	;				
 NODE_1373       	1286.7      	0           	1               	;				
 NODE_1381       	1284.84     	0           	1               	;				
 NODE_1382       	1289.97     	0           	1               	;				
 NODE_1383       	1292.5      	0           	1               	;				
 NODE_1392       	1288.3      	0           	1               	;				
 NODE_1393       	1288.13     	0           	1               	;				
 NODE_335        	1305.8199   	0           	1               	;				
 NODE_1394       	1287.3101   	0           	1               	;				
 NODE_1395       	1287.25     	0           	1               	;				
 NODE_1398       	1304.33     	0           	1               	;				
 NODE_1399       	1299.33     	0           	1               	;				
 NODE_1400       	1304.58     	0           	1               	;				
 NODE_1419       	1305.01     	0           	1               	;				
 NODE_1420       	1304.95     	0           	1               	;				
 NODE_1421       	1306.02     	0           	1               	;				
 NODE_1422       	1306.01     	0           	1               	;				
 NODE_1432       	1293.98     	0           	1               	;				
 NODE_336        	1305.77     	0           	1               	;				
 NODE_1433       	1294.0601   	0           	1               	;				
 NODE_1434       	1294.0601   	0           	1               	;				
 NODE_1435       	1294.0601   	0           	1               	;				
 NODE_1436       	1286.45     	0           	1               	;				
 NODE_1437       	1286.38     	0           	1               	;				
 NODE_1467       	1286.71     	0           	1               	;				
 NODE_1475       	1286.25     	0           	1               	;				
 NODE_1476       	1288.29     	0           	1               	;				
 NODE_1477       	1288.21     	0           	1               	;				
 NODE_1478       	1288.39     	0           	1               	;				
 NODE_337        	1305.8199   	0           	1               	;				
 NODE_1482       	1286.91     	0           	1               	;				
 NODE_1483       	1305.45     	0           	1               	;				
 NODE_1512       	1286.3199   	0           	1               	;				
 NODE_1513       	1286.35     	0           	1               	;				
 NODE_1526       	1287.96     	0           	1               	;				
 NODE_1527       	1287.96     	0           	1               	;				
 NODE_338        	1305.92     	0           	1               	;				
 NODE_339        	1305.89     	0           	1               	;				
 NODE_340        	1306.08     	0           	1               	;				
 NODE_341        	1306.0601   	0           	1               	;				
 NODE_342        	1306.13     	0           	1               	;				
 NODE_343        	1306.78     	0           	1               	;				
 NODE_344        	1306.0699   	0           	1               	;				
 NODE_318        	1294.51     	0           	1               	;				
 NODE_345        	1306.26     	0           	1               	;				
 NODE_346        	1306.0699   	0           	1               	;				
 NODE_347        	1305.96     	0           	1               	;				
 NODE_348        	1304.89     	0           	1               	;				
 NODE_349        	1304.52     	0           	1               	;				
 NODE_350        	1303.9301   	0           	1               	;				
 NODE_351        	1304.9399   	0           	1               	;				
 NODE_352        	1305.53     	0           	1               	;				
 NODE_353        	1305.21     	0           	1               	;				
 NODE_354        	1305.33     	0           	1               	;				
 NODE_319        	1303.75     	0           	1               	;				
 NODE_355        	1305.05     	0           	1               	;				
 NODE_356        	1305.38     	0           	1               	;				
 NODE_357        	1305.0601   	0           	1               	;				
 NODE_358        	1305.25     	0           	1               	;				
 NODE_359        	1305.1      	0           	1               	;				
 NODE_360        	1304.75     	0           	1               	;				
 NODE_361        	1303.3199   	0           	1               	;				
 NODE_362        	1302.91     	0           	1               	;				
 NODE_363        	1301.38     	0           	1               	;				
 NODE_364        	1301        	0           	1               	;				
 NODE_320        	1303.8199   	0           	1               	;				
 NODE_365        	1300.85     	0           	1               	;				
 NODE_366        	1304.99     	0           	1               	;				
 NODE_367        	1304.67     	0           	1               	;				
 NODE_368        	1301.97     	0           	1               	;				
 NODE_369        	1305.02     	0           	1               	;				
 NODE_370        	1305.1899   	0           	1               	;				
 NODE_374        	1305.7      	0           	1               	;				
 NODE_395        	1306.15     	0           	1               	;				
 NODE_419        	1305.73     	0           	1               	;				
 NODE_321        	1303.79     	0           	1               	;				
 NODE_420        	1305.54     	0           	1               	;				
 NODE_421        	1305.61     	0           	1               	;				
 NODE_422        	1305.97     	0           	1               	;				
 NODE_423        	1305.91     	0           	1               	;				
 NODE_424        	1305.17     	0           	1               	;				
 NODE_425        	1305.27     	0           	1               	;				
 NODE_426        	1305.24     	0           	1               	;				
 NODE_430        	1302.37     	0           	1               	;				
 NODE_431        	1288.84     	0           	1               	;				
 NODE_322        	1302.83     	0           	1               	;				
 NODE_432        	1303.77     	0           	1               	;				
 NODE_433        	1288.26     	0           	1               	;				
 NODE_434        	1288.3      	0           	1               	;				
 NODE_435        	1288        	0           	1               	;				
 NODE_436        	1287.8      	0           	1               	;				
 NODE_437        	1304.09     	0           	1               	;				
 NODE_438        	1303.21     	0           	1               	;				
 NODE_439        	1305.3101   	0           	1               	;				
 NODE_440        	1305.55     	0           	1               	;				
 NODE_441        	1305.83     	0           	1               	;				
 NODE_323        	1296.33     	0           	1               	;				
 NODE_442        	1305.75     	0           	1               	;				
 NODE_444        	1305.49     	0           	1               	;				
 NODE_445        	1305.46     	0           	1               	;				
 NODE_446        	1304.9399   	0           	1               	;				
 NODE_447        	1303.25     	0           	1               	;				
 NODE_448        	1306.09     	0           	1               	;				
 NODE_449        	1305.74     	0           	1               	;				
 NODE_450        	1305.65     	0           	1               	;				
 NODE_451        	1305.54     	0           	1               	;				
 NODE_452        	1305.61     	0           	1               	;				
 NODE_324        	1290.63     	0           	1               	;				
 NODE_453        	1304.36     	0           	1               	;				
 NODE_454        	1305.37     	0           	1               	;				
 NODE_455        	1297.71     	0           	1               	;				
 NODE_456        	1304.77     	0           	1               	;				
 NODE_457        	1305.4301   	0           	1               	;				
 NODE_458        	1287.83     	0           	1               	;				
 NODE_459        	1288.9      	0           	1               	;				
 NODE_460        	1292.79     	0           	1               	;				
 NODE_461        	1293.8101   	0           	1               	;				
 NODE_462        	1292.63     	0           	1               	;				
 NODE_9000       	1308        	0           	1               	;				
 NODE_9001       	1309        	0           	1               	;				
 NODE_9002       	1306        	0           	1               	;				
 NODE_9003       	1298        	0           	1               	;				
 NODE_9004       	1292        	0           	1               	;				
 NODE_9005       	1292        	0           	1               	;				
 NODE_9006       	1292        	0           	1               	;				
 NODE_9007       	1290        	0           	1               	;				
 NODE_9008       	1289        	0           	1               	;				
 NODE_9009       	1287        	0           	1               	;				
 NODE_9010       	1289        	0           	1               	;				
 NODE_9011       	1286        	0           	1               	;				
 NODE_9012       	1288        	0           	1               	;				
 NODE_9013       	1287        	0           	1               	;				
 NODE_9014       	1291        	0           	1               	;				
 NODE_9015       	1292        	0           	1               	;				
 NODE_9016       	1293        	0           	1               	;				
 NODE_9017       	1294        	0           	1               	;				
 NODE_9018       	1302        	0           	1               	;				
 NODE_9019       	1308        	0           	1               	;				
 NODE_9020       	1314        	0           	1               	;				
 NODE_9021       	1317        	0           	1               	;				
 NODE_9022       	1315        	0           	1               	;				
 NODE_9023       	1308        	0           	1               	;				
 NODE_9025       	1303        	0           	1               	;				
 NODE_9026       	1301        	0           	1               	;				
 NODEIN_3754     	1304.904    	0.011       	1               	;				
 NODEIN_3755     	1304.786    	0.011       	1               	;				
 NODEIN_5493     	1304.712    	0.011       	1               	;				
 NODEIN_5568     	1304.743    	0.011       	1               	;				
 NODEIN_5575     	1305.455    	0.011       	1               	;				
 NODEIN_3857     	1305.921    	0.011       	1               	;				
 NODEIN_3804     	1306.147    	0.011       	1               	;				
 NODEIN_3799     	1306.259    	0.011       	1               	;				
 NODEIN_3800     	1306.143    	0.011       	1               	;				
 NODEIN_3801     	1306.175    	0.011       	1               	;				
 NODEIN_3802     	1306.146    	0.011       	1               	;				
 NODEIN_3803     	1306.257    	0.011       	1               	;				
 NODEIN_5471     	1307.147    	0.011       	1               	;				
 NODEIN_5472     	1306.884    	0.011       	1               	;				
 NODEIN_5473     	1306.922    	0.011       	1               	;				
 NODEIN_5474     	1306.866    	0.011       	1               	;				
 NODEIN_5475     	1307.577    	0.011       	1               	;				
 NODEIN_5476     	1307.447    	0.011       	1               	;				
 NODEIN_5477     	1307.208    	0.011       	1               	;				
 NODEIN_5478     	1307.06     	0.011       	1               	;				
 NODEIN_5479     	1307.244    	0.011       	1               	;				
 NODEIN_5480     	1307.029    	0.011       	1               	;				
 NODEIN_4470     	1306.833    	0.011       	1               	;				
 NODEIN_4471     	1306.91     	0.011       	1               	;				
 NODEIN_4472     	1307.02     	0.011       	1               	;				
 NODEIN_6630     	1307.114    	0.011       	1               	;				
 NODEIN_5335     	1294.5      	0.011       	1               	;				
 NODEIN_4469     	1307.112    	0.011       	1               	;				
 NODEIN_1        	1297.353    	0.011       	1               	;				
 NODEIN_10       	1287.798    	0.011       	1               	;				
 NODEIN_133      	1305.963    	0.011       	1               	;				
 NODEIN_134      	1305.963    	0.011       	1               	;				
 NODEIN_135      	1305.963    	0.011       	1               	;				
 NODEIN_136      	1304.747    	0.011       	1               	;				
 NODEIN_137      	1305.863    	0.011       	1               	;				
 NODEIN_138      	1305.651    	0.011       	1               	;				
 NODEIN_139      	1305.482    	0.011       	1               	;				
 NODEIN_140      	1305.262    	0.011       	1               	;				
 NODEIN_141      	1305.262    	0.011       	1               	;				
 NODEIN_142      	1305.262    	0.011       	1               	;				
 NODEIN_11       	1287.932    	0.011       	1               	;				
 NODEIN_143      	1305.578    	0.011       	1               	;				
 NODEIN_144      	1300.362    	0.011       	1               	;				
 NODEIN_145      	1300.007    	0.011       	1               	;				
 NODEIN_5481     	1293.705    	0.011       	1               	;				
 NODEIN_147      	1291.82     	0.011       	1               	;				
 NODEIN_148      	1291.313    	0.011       	1               	;				
 NODEIN_151      	1289.7      	0.011       	1               	;				
 NODEIN_152      	1289.509    	0.011       	1               	;				
 NODEIN_12       	1287.943    	0.011       	1               	;				
 NODEIN_153      	1289.489    	0.011       	1               	;				
 NODEIN_154      	1289.234    	0.011       	1               	;				
 NODEIN_155      	1291.277    	0.011       	1               	;				
 NODEIN_156      	1288.37     	0.011       	1               	;				
 NODEIN_157      	1288.323    	0.011       	1               	;				
 NODEIN_158      	1288.277    	0.011       	1               	;				
 NODEIN_176      	1305.926    	0.011       	1               	;				
 NODEIN_13       	1287.969    	0.011       	1               	;				
 NODEIN_285      	1286.148    	0.011       	1               	;				
 NODEIN_286      	1286.132    	0.011       	1               	;				
 NODEIN_424      	1305.504    	0.011       	1               	;				
 NODEIN_3669     	1297.137    	0.011       	1               	;				
 NODEIN_3670     	1299.943    	0.011       	1               	;				
 NODEIN_14       	1288.014    	0.011       	1               	;				
 NODEIN_3671     	1301.454    	0.011       	1               	;				
 NODEIN_3672     	1303.941    	0.011       	1               	;				
 NODEIN_3673     	1304.101    	0.011       	1               	;				
 NODEIN_3674     	1303.787    	0.011       	1               	;				
 NODEIN_3675     	1303.828    	0.011       	1               	;				
 NODEIN_3676     	1303.931    	0.011       	1               	;				
 NODEIN_3677     	1303.907    	0.011       	1               	;				
 NODEIN_3678     	1303.237    	0.011       	1               	;				
 NODEIN_3679     	1287.798    	0.011       	1               	;				
 NODEIN_3680     	1287.809    	0.011       	1               	;				
 NODEIN_3681     	1301.354    	0.011       	1               	;				
 NODEIN_3682     	1301.404    	0.011       	1               	;				
 NODEIN_3683     	1301.741    	0.011       	1               	;				
 NODEIN_3684     	1301.501    	0.011       	1               	;				
 NODEIN_3685     	1300.833    	0.011       	1               	;				
 NODEIN_3686     	1301.967    	0.011       	1               	;				
 NODEIN_3687     	1302.913    	0.011       	1               	;				
 NODEIN_3688     	1302.913    	0.011       	1               	;				
 NODEIN_3689     	1303.711    	0.011       	1               	;				
 NODEIN_3690     	1287.732    	0.011       	1               	;				
 NODEIN_16       	1287.756    	0.011       	1               	;				
 NODEIN_3691     	1304.214    	0.011       	1               	;				
 NODEIN_3692     	1304.297    	0.011       	1               	;				
 NODEIN_3693     	1304.425    	0.011       	1               	;				
 NODEIN_3694     	1305.364    	0.011       	1               	;				
 NODEIN_3695     	1305.359    	0.011       	1               	;				
 NODEIN_3696     	1305.342    	0.011       	1               	;				
 NODEIN_3697     	1305.344    	0.011       	1               	;				
 NODEIN_3698     	1306.008    	0.011       	1               	;				
 NODEIN_3699     	1305.321    	0.011       	1               	;				
 NODEIN_3700     	1305.089    	0.011       	1               	;				
 NODEIN_17       	1287.691    	0.011       	1               	;				
 NODEIN_3701     	1305.457    	0.011       	1               	;				
 NODEIN_3702     	1305.399    	0.011       	1               	;				
 NODEIN_3703     	1305.548    	0.011       	1               	;				
 NODEIN_3704     	1305.586    	0.011       	1               	;				
 NODEIN_3705     	1305.535    	0.011       	1               	;				
 NODEIN_3706     	1305.255    	0.011       	1               	;				
 NODEIN_3707     	1305.261    	0.011       	1               	;				
 NODEIN_3708     	1305.046    	0.011       	1               	;				
 NODEIN_3709     	1304.843    	0.011       	1               	;				
 NODEIN_3710     	1304.902    	0.011       	1               	;				
 NODEIN_18       	1287.694    	0.011       	1               	;				
 NODEIN_3711     	1304.904    	0.011       	1               	;				
 NODEIN_3712     	1304.907    	0.011       	1               	;				
 NODEIN_3713     	1304.867    	0.011       	1               	;				
 NODEIN_3714     	1304.869    	0.011       	1               	;				
 NODEIN_3715     	1305.354    	0.011       	1               	;				
 NODEIN_3716     	1303.686    	0.011       	1               	;				
 NODEIN_3717     	1305.905    	0.011       	1               	;				
 NODEIN_3718     	1305.914    	0.011       	1               	;				
 NODEIN_3719     	1305.998    	0.011       	1               	;				
 NODEIN_3720     	1306.084    	0.011       	1               	;				
 NODEIN_19       	1288.042    	0.011       	1               	;				
 NODEIN_3721     	1306.101    	0.011       	1               	;				
 NODEIN_3722     	1305.875    	0.011       	1               	;				
 NODEIN_3723     	1306.135    	0.011       	1               	;				
 NODEIN_3724     	1306.126    	0.011       	1               	;				
 NODEIN_3725     	1305.853    	0.011       	1               	;				
 NODEIN_3726     	1305.9      	0.011       	1               	;				
 NODEIN_3727     	1305.718    	0.011       	1               	;				
 NODEIN_3728     	1306.164    	0.011       	1               	;				
 NODEIN_3729     	1306.255    	0.011       	1               	;				
 NODEIN_3740     	1305.817    	0.011       	1               	;				
 NODEIN_2        	1290.249    	0.011       	1               	;				
 NODEIN_20       	1288.347    	0.011       	1               	;				
 NODEIN_3741     	1305.635    	0.011       	1               	;				
 NODEIN_3809     	1301.398    	0.011       	1               	;				
 NODEIN_21       	1288.48     	0.011       	1               	;				
 NODEIN_3825     	1306.339    	0.011       	1               	;				
 NODEIN_3826     	1306.362    	0.011       	1               	;				
 NODEIN_3827     	1306.195    	0.011       	1               	;				
 NODEIN_3828     	1306.017    	0.011       	1               	;				
 NODEIN_3829     	1305.719    	0.011       	1               	;				
 NODEIN_3830     	1305.59     	0.011       	1               	;				
 NODEIN_3833     	1305.497    	0.011       	1               	;				
 NODEIN_3834     	1305.515    	0.011       	1               	;				
 NODEIN_22       	1288.381    	0.011       	1               	;				
 NODEIN_3835     	1305.921    	0.011       	1               	;				
 NODEIN_3836     	1305.875    	0.011       	1               	;				
 NODEIN_3837     	1305.952    	0.011       	1               	;				
 NODEIN_3838     	1305.955    	0.011       	1               	;				
 NODEIN_3839     	1305.764    	0.011       	1               	;				
 NODEIN_3840     	1306.012    	0.011       	1               	;				
 NODEIN_3841     	1305.971    	0.011       	1               	;				
 NODEIN_3842     	1305.301    	0.011       	1               	;				
 NODEIN_3843     	1305.334    	0.011       	1               	;				
 NODEIN_3844     	1305.282    	0.011       	1               	;				
 NODEIN_23       	1288.779    	0.011       	1               	;				
 NODEIN_3845     	1305.207    	0.011       	1               	;				
 NODEIN_3846     	1305.328    	0.011       	1               	;				
 NODEIN_3847     	1305.129    	0.011       	1               	;				
 NODEIN_3848     	1305.146    	0.011       	1               	;				
 NODEIN_3849     	1305.192    	0.011       	1               	;				
 NODEIN_3850     	1305.17     	0.011       	1               	;				
 NODEIN_3851     	1305.216    	0.011       	1               	;				
 NODEIN_3852     	1305.238    	0.011       	1               	;				
 NODEIN_3853     	1305.286    	0.011       	1               	;				
 NODEIN_3854     	1305.306    	0.011       	1               	;				
 NODEIN_24       	1293.302    	0.011       	1               	;				
 NODEIN_3855     	1305.403    	0.011       	1               	;				
 NODEIN_3856     	1305.306    	0.011       	1               	;				
 NODEIN_3858     	1305.199    	0.011       	1               	;				
 NODEIN_3859     	1305.174    	0.011       	1               	;				
 NODEIN_3860     	1305.572    	0.011       	1               	;				
 NODEIN_3861     	1305.849    	0.011       	1               	;				
 NODEIN_3862     	1305.856    	0.011       	1               	;				
 NODEIN_3863     	1306.006    	0.011       	1               	;				
 NODEIN_3864     	1305.963    	0.011       	1               	;				
 NODEIN_25       	1292.514    	0.011       	1               	;				
 NODEIN_3865     	1306.126    	0.011       	1               	;				
 NODEIN_3866     	1306.183    	0.011       	1               	;				
 NODEIN_3867     	1305.561    	0.011       	1               	;				
 NODEIN_3868     	1305.567    	0.011       	1               	;				
 NODEIN_3869     	1305.519    	0.011       	1               	;				
 NODEIN_3870     	1305.308    	0.011       	1               	;				
 NODEIN_3871     	1305.255    	0.011       	1               	;				
 NODEIN_3872     	1304.87     	0.011       	1               	;				
 NODEIN_3873     	1304.256    	0.011       	1               	;				
 NODEIN_3874     	1303.143    	0.011       	1               	;				
 NODEIN_26       	1292.081    	0.011       	1               	;				
 NODEIN_3875     	1302.733    	0.011       	1               	;				
 NODEIN_3876     	1302.867    	0.011       	1               	;				
 NODEIN_3877     	1303.175    	0.011       	1               	;				
 NODEIN_3878     	1304.883    	0.011       	1               	;				
 NODEIN_3879     	1304.616    	0.011       	1               	;				
 NODEIN_3880     	1304.303    	0.011       	1               	;				
 NODEIN_3881     	1304.242    	0.011       	1               	;				
 NODEIN_3882     	1304.307    	0.011       	1               	;				
 NODEIN_3883     	1305.748    	0.011       	1               	;				
 NODEIN_3884     	1305.717    	0.011       	1               	;				
 NODEIN_27       	1292.009    	0.011       	1               	;				
 NODEIN_3885     	1305.82     	0.011       	1               	;				
 NODEIN_3886     	1305.85     	0.011       	1               	;				
 NODEIN_3887     	1306.01     	0.011       	1               	;				
 NODEIN_3888     	1306.059    	0.011       	1               	;				
 NODEIN_3889     	1306.085    	0.011       	1               	;				
 NODEIN_3890     	1306.076    	0.011       	1               	;				
 NODEIN_3891     	1305.646    	0.011       	1               	;				
 NODEIN_3892     	1305.548    	0.011       	1               	;				
 NODEIN_3893     	1305.789    	0.011       	1               	;				
 NODEIN_3894     	1305.75     	0.011       	1               	;				
 NODEIN_28       	1291.473    	0.011       	1               	;				